@<TRIPOS>MOLECULE
Cpptraj generated mol2 file.
    4     3     1     0     0
SMALL
NO_CHARGES


@<TRIPOS>ATOM
      1 C1          0.0000   -0.4597   -1.5302 C3         1 BUT      0.000000
      2 C2          0.0000    0.0000    0.0000 C2         1 BUT      0.000000
      3 C3          0.0000    1.5980    0.0000 C2         1 BUT      0.000000
      4 C4         -1.4740    1.5730   -0.6167 C3         1 BUT      0.000000
@<TRIPOS>BOND
    1     1     2 1
    2     2     3 1
    3     3     4 1
@<TRIPOS>SUBSTRUCTURE
      1 BUT               1 ****               0 ****  **** 
