#	Created by:	Discovery Studio
#	Creation time:	2017-10-31T16:52:04Z

@<TRIPOS>MOLECULE
Molecule 1
    6     6     0 0 0
SMALL
USER_CHARGES


@<TRIPOS>ATOM
      1 C1            0.192604   -0.836122    0.275865 C.3      1 SUBUNIT    0.0000
      2 C1           -0.930971    0.061244   -0.286776 C.3      1 SUBUNIT    0.0000
      3 C2           -0.730068    1.510727    0.206059 C.3      1 SUBUNIT    0.0000
      4 C3            0.639992    2.035035   -0.275904 C.3      1 SUBUNIT    0.0000
      5 C4            1.763567    1.137670    0.286737 C.3      1 SUBUNIT    0.0000
      6 C5            1.562664   -0.311814   -0.206098 C.3      1 SUBUNIT    0.0000
@<TRIPOS>BOND
     1    6    1 1
     2    5    6 1
     3    4    5 1
     4    3    4 1
     5    2    3 1
     6    1    2 1
@<SCITEGIC>MOL_PROPERTY
Clean Energy
SciTegic.value.DoubleValue
0.033623

@<SCITEGIC>ATOM_PROPERTY
Formal Charge
SciTegic.value.StringValue
1 0
2 0
3 0
4 0
5 0
6 0

@<SCITEGIC>ATOM_PROPERTY
pdb_tempFactor
SciTegic.value.DoubleValue
1 0.00
2 0.00
3 0.00
4 0.00
5 0.00
6 0.00

@<SCITEGIC>ATOM_PROPERTY
pdb_occupancy
SciTegic.value.DoubleValue
1 1.00
2 1.00
3 1.00
4 1.00
5 1.00
6 1.00

