#	Created by:	Discovery Studio
#	Creation time:	2017-10-17T12:02:16Z

@<TRIPOS>MOLECULE
Molecule 1
    6     6     0 0 0
SMALL
USER_CHARGES


@<TRIPOS>ATOM
      1 C1            1.056360   -0.956880    0.116820 c6       1 SUBUNIT    0.0000
      2 C2           -0.344970   -1.454280   -0.217400 c6       1 SUBUNIT    0.0000
      3 C3           -1.359700   -0.320530   -0.306900 c6       1 SUBUNIT    0.0000
      4 C4           -0.990390    0.832960    0.608800 c6       1 SUBUNIT    0.0000
      5 C5            0.344920    1.454490    0.216700 c6       1 SUBUNIT    0.0000
      6 C6            1.293700    0.444300   -0.417660 c6       1 SUBUNIT    0.0000
@<TRIPOS>BOND
     1    1    2 1
     2    2    3 1
     3    3    4 1
     4    4    5 1
     5    5    6 1
     6    6    1 1
@<SCITEGIC>ATOM_PROPERTY
Formal Charge
SciTegic.value.StringValue
1 0
2 0
3 0
4 0
5 0
6 0

@<SCITEGIC>ATOM_PROPERTY
pdb_tempFactor
SciTegic.value.DoubleValue
1 0.00
2 0.00
3 0.00
4 0.00
5 0.00
6 0.00

@<SCITEGIC>ATOM_PROPERTY
pdb_occupancy
SciTegic.value.DoubleValue
1 1.00
2 1.00
3 1.00
4 1.00
5 1.00
6 1.00

