#	Created by:	Discovery Studio
#	Creation time:	2017-10-17T12:01:37Z

@<TRIPOS>MOLECULE
Molecule 1
    5     5     0 0 0
SMALL
USER_CHARGES


@<TRIPOS>ATOM
      1 C1           -0.483780    1.004460    0.646420 c5       1 SUBUNIT    0.0000
      2 C2            0.556540    1.066420   -0.466410 c5       1 SUBUNIT    0.0000
      3 C3            0.988400   -0.371770   -0.744100 c5       1 SUBUNIT    0.0000
      4 C4            0.002080   -1.290920   -0.025020 c5       1 SUBUNIT    0.0000
      5 C5           -1.070830   -0.401020    0.595520 c5       1 SUBUNIT    0.0000
@<TRIPOS>BOND
     1    1    2 1
     2    2    3 1
     3    3    4 1
     4    4    5 1
     5    5    1 1
@<SCITEGIC>ATOM_PROPERTY
Formal Charge
SciTegic.value.StringValue
1 0
2 0
3 0
4 0
5 0

@<SCITEGIC>ATOM_PROPERTY
pdb_tempFactor
SciTegic.value.DoubleValue
1 0.00
2 0.00
3 0.00
4 0.00
5 0.00

@<SCITEGIC>ATOM_PROPERTY
pdb_occupancy
SciTegic.value.DoubleValue
1 1.00
2 1.00
3 1.00
4 1.00
5 1.00

