@<TRIPOS>MOLECULE
Cpptraj generated mol2 file.
    6     6     1     0     0
SMALL
NO_CHARGES


@<TRIPOS>ATOM
      1 C1          1.0564   -0.9569    0.1168 C2         1 ule      0.000000
      2 C2         -0.3450   -1.4543   -0.2174 C2         1 ule      0.000000
      3 C3         -1.3597   -0.3205   -0.3069 C2         1 ule      0.000000
      4 C4         -0.9904    0.8330    0.6088 C2         1 ule      0.000000
      5 C5          0.3449    1.4545    0.2167 C2         1 ule      0.000000
      6 C6          1.2937    0.4443   -0.4177 C2         1 ule      0.000000
@<TRIPOS>BOND
    1     1     2 1
    2     1     6 1
    3     2     3 1
    4     3     4 1
    5     4     5 1
    6     5     6 1
@<TRIPOS>SUBSTRUCTURE
      1 ule               1 ****               0 ****  **** 
