@<TRIPOS>MOLECULE
Cpptraj generated mol2 file.
    5     5     1     0     0
SMALL
NO_CHARGES


@<TRIPOS>ATOM
      1 C1         -0.4838    1.0045    0.6464 C2         1 ule      0.000000
      2 C2          0.5565    1.0664   -0.4664 C2         1 ule      0.000000
      3 C3          0.9884   -0.3718   -0.7441 C2         1 ule      0.000000
      4 C4          0.0021   -1.2909   -0.0250 C2         1 ule      0.000000
      5 C5         -1.0708   -0.4010    0.5955 C2         1 ule      0.000000
@<TRIPOS>BOND
    1     1     2 1
    2     1     5 1
    3     2     3 1
    4     3     4 1
    5     4     5 1
@<TRIPOS>SUBSTRUCTURE
      1 ule               1 ****               0 ****  **** 
