#	Created by:	Discovery Studio
#	Creation time:	2017-10-31T16:50:25Z

@<TRIPOS>MOLECULE
Molecule 1
    6     6     0 0 0
SMALL
USER_CHARGES


@<TRIPOS>ATOM
      1 C1            0.209324   -0.730026    0.255283 C.3      1 SUBUNIT    0.0000
      2 O1           -0.831292    0.101205   -0.266117 O.3      1 SUBUNIT    0.0000
      3 C2           -0.645184    1.443076    0.192608 C.3      1 SUBUNIT    0.0000
      4 O3            0.623272    1.928940   -0.255322 O.3      1 SUBUNIT    0.0000
      5 C4            1.663887    1.097708    0.266078 C.3      1 SUBUNIT    0.0000
      6 O5            1.477779   -0.244163   -0.192647 O.3      1 SUBUNIT    0.0000
@<TRIPOS>BOND
     1    6    1 1
     2    5    6 1
     3    4    5 1
     4    3    4 1
     5    2    3 1
     6    1    2 1
@<SCITEGIC>MOL_PROPERTY
Clean Energy
SciTegic.value.DoubleValue
-0.295797

@<SCITEGIC>ATOM_PROPERTY
Formal Charge
SciTegic.value.StringValue
1 0
2 0
3 0
4 0
5 0
6 0

@<SCITEGIC>ATOM_PROPERTY
pdb_tempFactor
SciTegic.value.DoubleValue
1 0.00
2 0.00
3 0.00
4 0.00
5 0.00
6 0.00

@<SCITEGIC>ATOM_PROPERTY
pdb_occupancy
SciTegic.value.DoubleValue
1 1.00
2 1.00
3 1.00
4 1.00
5 1.00
6 1.00

