#	Created by:	Discovery Studio
#	Creation time:	2017-10-31T16:55:00Z

@<TRIPOS>MOLECULE
Molecule 1
    6     5     0 0 0
SMALL
USER_CHARGES


@<TRIPOS>ATOM
      1 C1            1.690641   -0.871239   -1.408298 C.3      1 SUBUNIT    0.0000
      2 O1            1.038606   -0.054118   -0.432857 O.3      1 SUBUNIT    0.0000
      3 C2            1.318982   -0.559975    0.878048 C.3      1 SUBUNIT    0.0000
      4 C3            0.639734    0.283488    2.004514 C.3      1 SUBUNIT    0.0000
      5 O4           -0.809757    0.214220    1.978571 O.3      1 SUBUNIT    0.0000
      6 C5           -1.375155    0.978184    0.903072 C.3      1 SUBUNIT    0.0000
@<TRIPOS>BOND
     1    5    6 1
     2    4    5 1
     3    3    4 1
     4    2    3 1
     5    1    2 1
@<SCITEGIC>MOL_PROPERTY
Clean Energy
SciTegic.value.DoubleValue
1.893724

@<SCITEGIC>ATOM_PROPERTY
Formal Charge
SciTegic.value.StringValue
1 0
2 0
3 0
4 0
5 0
6 0

@<SCITEGIC>ATOM_PROPERTY
pdb_tempFactor
SciTegic.value.DoubleValue
1 0.00
2 0.00
3 0.00
4 0.00
5 0.00
6 0.00

@<SCITEGIC>ATOM_PROPERTY
pdb_occupancy
SciTegic.value.DoubleValue
1 1.00
2 1.00
3 1.00
4 1.00
5 1.00
6 1.00

