@<TRIPOS>MOLECULE
Cpptraj generated mol2 file.
    2     1     1     0     0
SMALL
NO_CHARGES


@<TRIPOS>ATOM
      1 C3          0.000000    0.0000    0.0000 C3         1 NK0      0.000000
      2 C4          1.597649    0.0000    0.0000 C3         1 NK0      0.000000
@<TRIPOS>BOND
    1     1     2 1
@<TRIPOS>SUBSTRUCTURE
      1 NK0               1 ****               0 ****  ****
