@<TRIPOS>MOLECULE
Cpptraj generated mol2 file.
    3     2     1     0     0
SMALL
NO_CHARGES


@<TRIPOS>ATOM
      1 C2          1.5976    0.0000    0.0000 C3         1 NK0      0.000000
      2 C3          0.0000    0.0000    0.0000 C2         1 NK0      0.000000
      3 C4         -0.4599    1.5300    0.0000 C3         1 NK0      0.000000
@<TRIPOS>BOND
    1     1     2 1
    2     2     3 1
@<TRIPOS>SUBSTRUCTURE
      1 NK0               1 ****               0 ****  **** 
